
  Ketcher 11131515532D 1   1.00000     0.00000     0

 17 19  0     1  0            999 V2000
   21.9242   -6.8778    0.0000 N   0  0  0  0  0  0  0  0  0  0  0  0
   21.1489   -6.3410    0.0000 C   0  0  0  0  0  0  0  0  0  0  0  0
   22.7574   -6.2851    0.0000 C   0  0  0  0  0  0  0  0  0  0  0  0
   21.4453   -5.3532    0.0000 C   0  0  0  0  0  0  0  0  0  0  0  0
   22.3816   -5.3532    0.0000 C   0  0  0  0  0  0  0  0  0  0  0  0
   20.7130   -4.5951    0.0000 C   0  0  0  0  0  0  0  0  0  0  0  0
   23.0966   -4.6080    0.0000 C   0  0  0  0  0  0  0  0  0  0  0  0
   23.7130   -6.4548    0.0000 C   0  0  0  0  0  0  0  0  0  0  0  0
   20.1204   -6.5708    0.0000 C   0  0  0  0  0  0  0  0  0  0  0  0
   19.7488   -4.8442    0.0000 C   0  0  0  0  0  0  0  0  0  0  0  0
   24.0523   -4.7776    0.0000 C   0  0  0  0  0  0  0  0  0  0  0  0
   19.4525   -5.8320    0.0000 C   0  0  0  0  0  0  0  0  0  0  0  0
   24.3637   -5.6904    0.0000 C   0  0  0  0  0  0  0  0  0  0  0  0
   24.0609   -7.4018    0.0000 C   0  0  0  0  0  0  0  0  0  0  0  0
   23.4301   -8.1685    0.0000 O   0  0  0  0  0  0  0  0  0  0  0  0
   25.0329   -7.5511    0.0000 N   0  0  0  0  0  0  0  0  0  0  0  0
   19.0531   -4.1206    0.0000 Cl  0  0  0  0  0  0  0  0  0  0  0  0
  2  1  1  0     0  0
  3  1  1  0     0  0
  4  2  2  0     0  0
  9  2  1  0     0  0
  5  3  2  0     0  0
  8  3  1  0     0  0
  5  4  1  0     0  0
  6  4  1  0     0  0
  7  5  1  0     0  0
 10  6  2  0     0  0
 11  7  1  0     0  0
 13  8  1  0     0  0
  8 14  1  6     0  0
 12  9  2  0     0  0
 12 10  1  0     0  0
 17 10  1  0     0  0
 13 11  1  0     0  0
 15 14  2  0     0  0
 16 14  1  0     0  0
M  END
