
  Ketcher 11131515522D 1   1.00000     0.00000     0

 17 19  0     1  0            999 V2000
    9.2485   -7.0714    0.0000 N   0  0  0  0  0  0  0  0  0  0  0  0
    8.4733   -6.5345    0.0000 C   0  0  0  0  0  0  0  0  0  0  0  0
   10.0817   -6.4787    0.0000 C   0  0  0  0  0  0  0  0  0  0  0  0
    8.7696   -5.5467    0.0000 C   0  0  0  0  0  0  0  0  0  0  0  0
    9.7059   -5.5467    0.0000 C   0  0  0  0  0  0  0  0  0  0  0  0
    8.0374   -4.7887    0.0000 C   0  0  0  0  0  0  0  0  0  0  0  0
   10.4210   -4.8016    0.0000 C   0  0  0  0  0  0  0  0  0  0  0  0
   11.0373   -6.6484    0.0000 C   0  0  0  0  0  0  0  0  0  0  0  0
    7.4446   -6.7643    0.0000 C   0  0  0  0  0  0  0  0  0  0  0  0
    7.0732   -5.0378    0.0000 C   0  0  0  0  0  0  0  0  0  0  0  0
   11.3766   -4.9712    0.0000 C   0  0  0  0  0  0  0  0  0  0  0  0
    6.7768   -6.0256    0.0000 C   0  0  0  0  0  0  0  0  0  0  0  0
   11.6879   -5.8838    0.0000 C   0  0  0  0  0  0  0  0  0  0  0  0
   11.3852   -7.5954    0.0000 C   0  0  0  0  0  0  0  0  0  0  0  0
   10.7545   -8.3621    0.0000 O   0  0  0  0  0  0  0  0  0  0  0  0
   12.3572   -7.7447    0.0000 N   0  0  0  0  0  0  0  0  0  0  0  0
    6.3774   -4.3141    0.0000 Cl  0  0  0  0  0  0  0  0  0  0  0  0
  2  1  1  0     0  0
  3  1  1  0     0  0
  4  2  2  0     0  0
  9  2  1  0     0  0
  5  3  2  0     0  0
  8  3  1  0     0  0
  5  4  1  0     0  0
  6  4  1  0     0  0
  7  5  1  0     0  0
 10  6  2  0     0  0
 11  7  1  0     0  0
 13  8  1  0     0  0
  8 14  1  1     0  0
 12  9  2  0     0  0
 12 10  1  0     0  0
 17 10  1  0     0  0
 13 11  1  0     0  0
 15 14  2  0     0  0
 16 14  1  0     0  0
M  END
